6Case met analyses/FONTE_2026.PWF
(
( Gravacao de .PWF - CART
( Versao do Anarede: 11.06.02
( Data e Hora da Gravacao: 08/05/2023 - 16:53:57                                                           
(
TITU
**EPE DECENAL 2032** MEDIA ** ANO 2026 ** NORTE UMIDO                           
DAGR
(AG (         D E S C R I C A O        )
  1 Estado                               
(ID O (       Nome de Identificacao      )
  1   Acre                                 
  2   Alagoas                              
  3   Amazonas                             
  4   Amap�                                
  5   Bahia                                
  6   Cear�                                
  7   Distrito Federal                     
  8   Esp�rito Santo                       
  9   Goi�s                                
 10   Maranh�o                             
 11   Minas Gerais                         
 12   Mato Grosso do Sul                   
 13   Mato Grosso                          
 14   Par�                                 
 15   Para�ba                              
 16   Pernambuco                           
 17   Piau�                                
 18   Paran�                               
 19   Rio de Janeiro                       
 20   Rio Grande do Norte                  
 21   Rond�nia                             
 22   Roraima                              
 23   Rio Grande do Sul                    
 24   Santa Catarina                       
 25   Sergipe                              
 26   S�o Paulo                            
 27   Tocantins                            
FAGR
(AG (         D E S C R I C A O        )
  2 Estado_Para                          
(ID O (       Nome de Identificacao      )
  1   Acre                                 
  2   Alagoas                              
  3   Amazonas                             
  4   Amap�                                
  5   Bahia                                
  6   Cear�                                
  7   Distrito Federal                     
  8   Esp�rito Santo                       
  9   Goi�s                                
 10   Maranh�o                             
 11   Minas Gerais                         
 12   Mato Grosso do Sul                   
 13   Mato Grosso                          
 14   Par�                                 
 15   Para�ba                              
 16   Pernambuco                           
 17   Piau�                                
 18   Paran�                               
 19   Rio de Janeiro                       
 20   Rio Grande do Norte                  
 21   Rond�nia                             
 22   Roraima                              
 23   Rio Grande do Sul                    
 24   Santa Catarina                       
 25   Sergipe                              
 26   S�o Paulo                            
 27   Tocantins                            
FAGR
(AG (         D E S C R I C A O        )
  3 Regi�o                               
(ID O (       Nome de Identificacao      )
  1   Norte                                
  2   Nordeste                             
  3   Centro Oeste                         
  4   Sudeste                              
  5   Sul                                  
FAGR
(AG (         D E S C R I C A O        )
  4 Tipo de Gera��o                      
(ID O (       Nome de Identificacao      )
  1   Compensador Est�tico                 
  2   E�lica                               
  3   Pequena Central Hidroel�trica        
  4   Compensador S�ncrono                 
  5   Usina Hidroel�trica                  
  6   Usina Nuclear                        
  7   Usina Termel�trica                   
  8   Usina Fotovolt�ica                   
  9   Usina Indicativa                     
FAGR
(AG (         D E S C R I C A O        )
  5 Classifica��o Instala��o             
(ID O (       Nome de Identificacao      )
  1   Rede B�sica                          
  2   Rede de Fronteira                    
  3   Rede de Distribui��o                 
  4   Rede de Uso Exclusivo                
  5   Demais Instala��es de Transmiss�o    
FAGR
99999
DOPC IMPR
(Op) E (Op) E (Op) E (Op) E (Op) E (Op) E (Op) E (Op) E (Op) E (Op) E
QLIM L VLIM L CREM L CTAP L STEP L NEWT L RCVG L RMON L FILE L CONT L
NOVO L CELO L MFCT L ATCR L INDC L CPHS L
99999
DCTE
(Mn) ( Val) (Mn) ( Val) (Mn) ( Val) (Mn) ( Val) (Mn) ( Val) (Mn) ( Val) 
BASE   100. DASE   100. TEPA     1. EXST     4. TETP     5. TBPA     5.
TLPP     1. TEPR     1. QLST     4. TLPR     1. TLPQ     2. TSBZ    .01
TSBA     5. ASTP    .05 VSTP     5. TLVC   .001 TLTC    .01 TSFR  .1E-7
ZMAX   500. TLPV     .5 VDVM   200. VDVN    40. TUDC   .001 TADC    .01
PGER    30. TPST     2. VFLD    70. ZMIN   .001 HIST    470 LFIT     10
ACIT    150 LFCV      1 DCIT     10 VSIT     10 LPIT     50 LFLP     10
PDIT     10 LCRT     24 LPRT     60 CSTP     5. ASDC     1.
ICIT     30 DMAX      5 FDIV     2. ICMN    .05 VART     5. TSTP     32
ICMV     .5 APAS    90. CPAR    70. VAVT     2. VAVF     5. VMVF    15.
VPVT     2. VPVF     5. VPMF    10. VSVF    20. VINF     1. VSUP     1.
TLSI     0. NDIR    20. STTR     5. TRPT   100. STIR     1. BFPO     1.
LFPO     .1 TLMT     .5 TLMF     .5 TLMG     .5 PARS    10.            
99999
DBAR
(Num)OETGb(   nome   )Gl( V)( A)( Pg)( Qg)( Qn)( Qm)(Bc  )( Pl)( Ql)( Sh)Are(Vf)M(1)(2)(3)(4)(5)(6)(7)(8)(9)(10           
10012 L  SLECHUG-AM500 4103778.6                                          101000   3     1     1                   
10013 L  DJURUPACER013 T101783.1                                          101000  14     1  1  4                   
10014 L  DSILVESCER013 T102579.4                                          101000   3     1  1  4                   
10015 L  DORIXIMCER013 T 992 81.                                          101000  14     1  1  4                   
10016 L  DMACAPACER013 T101491.1                                          101000   4     1  1  4                   
10017 L  OMACAPA-AP230  101591.1                                          101000   4     1     1                   
10018 L  OLARANJ-AP230  102488.2                                          101000   4     1     1                   
10019 L  JLARANJ-AP069 5100087.2                                         1141079   4     1     5                   
10020 L1 DCNUN12UHE013 2100190.3  24..7022 -7.9  7.9                     1141000   4     1  5  4                   
10021 L1 DCNUNE3UHE013 2100190.7  24..9655-9.49 9.49                     1141000   4     1  5  4                   
10026 L  MCNUNES-AP138  100187.5                          34.5411.36     1141000   4     1  7  3                   
10029 D  DSNAVI2-AP013  1000  0.                                         1141000   4     1     3                   
10032 L  OMACAP3-AP230  100990.7                                          101000   4     1     1                   
10033 L  JMACAP3-AP069 5101788.1                                         1141000   4     1     2                   
10049 L  DSANTTF-AP013  102081.5                          13.84 4.04     1141000   4     1     3                   
10050 L  DSANTAT-AP013   99386.3                                         1141000   4     1  5  3                   
10051 L  DSTAT1--AP013   99386.3                                         1141000   4     1  5  3                   
10052 L  JSANTAN-AP069  100686.3                                         1141000   4     1  7  3                   
10053 L  MSANTAN-AP138  100086.2                                         1141000   4     1  7  3                   
10054 L  SAZULAO-AM500 4105179.4                                         1131000   3     1     1                   
10055 L1 GAZULAOUTE023  100179.4   0.   0.   0.   0.                     1131000   3     1  7  4                   
10057 L  ZSANAT2-AP000 E 99386.3                                         1141000   4     1  5  3                   
10058 L  ZSANAT1-AP000 E 99386.3                                         1141000   4     1  5  3                   
10059 L  ZSAN-Tf-AP000 E100882.8                                         1141000   4     1     3                   
10060 L  DSRTF01-AP013  100277.1                          13.94 4.06     1141000   4     1     3                   
10061 L  DSRTF02-AP013  100277.1                          18.09 5.28     1141000   4     1     3                   
10062 L  DSRTF03-AP013  100277.1                          21.99 6.41     1141000   4     1     3                   
10063 L  JS.RITA-AP069   98583.8                                         1141000   4     1     3                   
10066 L  DM2TR01-AP013   99282.1                          11.15 5.33     1141000   4     1     3                   
10067 L  DM2TR02-AP013   99282.1                           17.6 8.11     1141000   4     1     3                   
10068 L  DM2TR03-AP013  101585.5                          10.48   5.     1141000   4     1     3                   
10069 L  JMCP-II-AP069  100687.4                                         1141000   4     1     3                   
10070 L   AMAZ01-AP013   99381.8                          16.67 7.04       11000                                   
10072 L  DEQTR01-AP013   99575.9                          12.76 3.72     1141000   4     1     3                   
10073 L  DEQTR02-AP013   99575.9                          23.56 6.87     1141000   4     1     3                   
10074 L  DEQTR03-AP013   99575.9                          24.24 7.07     1141000   4     1     3                   
10075 L  JEQUATO-AP069   98283.3                                         1141000   4     1     3                   
10081 L  OF.GOME-AP230  1008101.                                           71000   4     1     1                   
10082 L1 DF.GOMEUHE013 21008107.201.68.504 -84. 123.                       71000   4     1  5  4                   
10083 L  OS.A.JA-AP230  101592.3                                          101000   4     1     1                   
10084 L1 DS.A.JAUHE013 2 99397.3 296.-70.6-138.179.4                       71000   4     1  5  4                   
10088 L  DLJTR01-AP013  100282.3                          12.76 6.18     1141000   4     1     3                   
10093 L  DPORT01-AP013   99082.2                          17.75 5.84     1141000   4     1  2  3                   
10094 L  DPORT02-AP013   99082.2                          15.71 5.16     1141000   4     1  2  3                   
10096 L  JPORTUA-AP069  100185.8                                         1141000   4     1     3                   
10099 L  JMACAPA-AP069 5101288.1                                         1141000   4     1     5                   
10102 L  JS.JOSE-AP069   98083.3                                         1141000   4     1     3                   
10103 L  DSJTR01-AP013   98982.4                          18.18 5.98     1141000   4     1     3                   
10104 L  DSJTR02-AP013   98982.4                          18.18 5.98     1141000   4     1     3                   
10110 L  OLECHUG-AM230  100877.8                                          101000   3     1     1                   
10111 L  MLECHUG-AM138  100476.7                                          101000   3     1     5                   
10113 L  DLECHU4-AM013  100376.5                                          101000   3     1     2                   
10120 L  ZLECHU1-AM000 E100877.8                                          101000   3     1     2                   
10121 L  ZLECHU2-AM000 E100877.8                                          101000   3     1     2                   
10122 L  ZLECHU3-AM000 E100877.8                                          101000   3     1     2                   
10123 L  DLECHU1-AM013  100877.8                                          101000   3     1     2                   
10124 L  DLECHU2-AM013  100877.8                                          101000   3     1     2                   
10125 L  DLECHU3-AM013  100877.8                                          101000   3     1     2                   
10126 L  ZLECHU4-AM000 E100877.8                                          101000   3     1     2                   
10128 L  DLECHU4-AM013  100877.8                                          101000   3     1     2                   
10130 L  ZLECHU1-AM000 E100376.5                                          101000   3     1     2                   
10131 L  ZLECHU2-AM000 E100376.5                                          101000   3     1     2                   
10132 L  ZLECHU3-AM000 E100376.5                                          101000   3     1     2                   
10133 L  DLECHU1-AM013  100376.5                                          101000   3     1     2                   
10134 L  DLECHU2-AM013  100376.5                                          101000   3     1     2                   
10135 L  DLECHU3-AM013  100376.5                                          101000   3     1     2                   
10136 L  ZLECHU4-AM000 E100376.5                                          101000   3     1     2                   
10146 L  DSANT01-AP013   99384.3                          18.14 6.45     1141000   4     1     3                   
10169 L  JAMAZ---AP069  1012 88.                                         1141000   4     1     3                   
10171 L1 DC.CALDUHE013 21003106.175.2-5.15-107. 107. 10081               114 975   4     1  5  4                   
10187 L  OC.CALD-AP230  1008102.                                         1141050   4     1     1                   
10199 L  JLJRCEA-AP069 5 99786.9                                         1141000   4     1     3                   
10206 L  STU-X-ACAP500 4100379.7                                          101000  14     1     1                   
10207 L  STU-X-BCAP500 4100379.7                                          101000  14     1     1                   
10208 L  SXI-J-ACAP500 4104384.3                                          101000  14     1     1                   
10209 L  SXI-J-BCAP500 4104384.3                                          101000  14     1     1                   
10210 L  SJU-X-ACAP500 4105182.5                                          101000  14     1     1                   
10211 L  SJU-X-BCAP500 4105182.5                                          101000  14     1     1                   
10212 L  SJU-O-ACAP500 4103085.3                                          101000  14     1     1                   
10213 L  SJU-O-BCAP500 4103085.3                                          101000  14     1     1                   
10214 L  SOR-J-ACAP500 4105878.9                                          101000  14     1     1                   
10215 L  SOR-J-BCAP500 4105878.9                                          101000  14     1     1                   
10216 L  SOR-S-ACAP500 4104782.8                                          101000  14     1     1                   
10217 L  SOR-S-BCAP500 4104782.8                                          101000  14     1     1                   
10218 L  SSI-O-ACAP500 4103777.5                                          101000   3     1     1                   
10219 L  SSI-O-BCAP500 4103777.5                                          101000   3     1     1                   
10220 L  SSI-L-ACAP500 4105880.3                                          101000   3     1     1                   
10221 L  SSI-L-BCAP500 4105880.3                                          101000   3     1     1                   
10222 L  SLE-S-ACAP500 4102177.6                                          101000   3     1     1                   
10223 L  SLE-S-BCAP500 4102177.6                                          101000   3     1     1                   
10300 L  JAPAREC-AM069 5 99475.2                          55.48  7.9     1131000   3     1     3                   
10304 L  MITACO2-AM138   99675.1                          40.06  5.7     1131000   3     1     3                   
10306 L  MIRANDU-AM138   99671.7                                      15.1131000   3     1     3                   
10308 L  MPARQ10-AM138   998 73.                          41.61 5.92     1131000   3     1     3                   
10310 L  MDI-4---AM138  100374.6                                         1131000   3     1     3                   
10312 L  MRIOPTE-AM138  100075.7                          10.92 1.55     1131000   3     1     3                   
10313 L  MAMAZON-AM138  100276.5                          72.2310.29     1131000   3     1     3                   
10314 L  JPETROP-AM069  100174.9                                         1131000   3     1     3                   
10315 L1 DAPARB1UTE013 2101278.8 68.4 -4.9-61.761.72                     1131000   3     1  7  4                   
10317 L1 DAPARB2UTE013 2100682.4 74.1-2.77 -75.74.98                     1131000   3     1  7  4                   
10320 L  JMAUAB1-AM069  100468.8                                         1131000   3     1     3                   
10321 L1 DMAUAB3UTE013 21012 74.  95.-13.7-65.465.38                     1131000   3     1  7  4                   
10325 L  JMAUAB2-AM069  100468.8                                         1131000   3     1     3                   
10330 L  OTARUMA-AM230   99977.4                                         1131000   3     1     1                   
10331 L  MTARUMA-AM138 2101174.4                                         1131000   3     1     5                   
10335 L  JMAUA2M-AM069 2100568.8                          38.41 5.47     1131000   3     1     3                   
10344 L  JCONSE1-AM069  100568.8                           41.213.54     1131000   3     1     3                   
10345 L  JCONSE2-AM069   99766.9                           5.24 1.72     1131000   3     1     3                   
10350 L  JCACHO2-AM069   99667.5                          17.17 2.44     1131000   3     1     3                   
10351 L  JCACHO1-AM069   99674.9                           7.62 1.08     1131000   3     1     3                   
10360 L  JVOITO--AM069  100274.8                          25.09 3.57     1131000   3     1     3                   
10361 L  ZJTEIX1-AM000 E100374.5                                         1131000   3     1     2                   
10362 L  ZJTEIX2-AM000 E100374.5                                         1131000   3     1     2                   
10363 L  ZJTEIX3-AM000 E100374.5                                         1131000   3     1     2                   
10364 L  ZJTEIX4-AM000 E100374.5                                         1131000   3     1     2                   
10365 L  DJTEIX1-AM013  100374.5                                         1131000   3     1     2                   
10366 L  DJTEIX2-AM013  100374.5                                         1131000   3     1     2                   
10367 L  DJTEIX3-AM013  100374.5                                         1131000   3     1     2                   
10368 L  DJTEIX4-AM013  100374.5                                         1131000   3     1     2                   
10369 L  ZJTEIX5-AM000  100374.5                                         1131000   3     1     2                   
10370 L  JFLORES-AM069   99674.1                          67.02 9.55     1131000   3     1     3                   
10371 L  DJTEIX5-AM013  100374.5                                         1131000   3     1     2                   
10375 D1 DFLORESUTE013 2 99250.5   0.   0.   0.   0.                     1131000   3     1  7  4                   
10379 L  JAMBEV--AM069   99674.1                           4.84 1.59     1131000   3     1     3                   
10380 L  JPNEGRA-AM069   99674.1                          32.54 4.63     1131000   3     1     3                   
10381 L  ZMAU3-1-AM000 E1000 74.                                         1131000   3     1     2                   
10382 L  ZMAU3-2-AM000 E1000 74.                                         1131000   3     1     2                   
10383 L  ZMAU3-3-AM000 E1000 74.                                         1131000   3     1     2                   
10384 L  ZMAU3-4-AM000 E1000 74.                                         1131000   3     1     2                   
10385 L  DMAU3-1-AM013  1000 74.                                         1131000   3     1     2                   
10386 L  DMAU3-2-AM013  1000 74.                                         1131000   3     1     2                   
10387 L  DMAU3-3-AM013  1000 74.                                         1131000   3     1     2                   
10388 L  DMAU3-4-AM013  1000 74.                                         1131000   3     1     2                   
10389 L  ZMAU3-5-AM000 E1000 74.                                         1131000   3     1     2                   
10390 L  JPIEPNG-AM069   99674.7                                         1131000   3     1     3                   
10391 L1 DPIEPNGUTE013 2101876.2 60.8-6.04-51.251.24                     1131000   3     1  7  4                   
10393 L  JPISMAE-AM069   99874.1                          18.68 2.67     1131000   3     1     3                   
10394 L  JSHOPMA-AM069   99774.7                           5.08 1.67     1131000   3     1     3                   
10395 L  JSERING-AM069   99574.6                          48.45  6.9     1131000   3     1     3                   
10399 L  DMAU3-5-AM013 E1000 74.                                         1131000   3     1     2                   
10400 L  OMANAUS-AM230  100177.3                                         1131000   3     1     1                   
10401 L  JMANA1A-AM069  100274.9                                         1131000   3     1     5                   
10402 L  JMANAU2-AM069  100366.2                                         1131000   3     1     3                   
10405 L  OCROCHA-AM230  100978.1                                         1131000   3     1     1                   
10406 L1 DCROCHAUTE013 2 99983.263.65-4.57-51.251.24                     1131000   3     1  7  4                   
10407 D1 DCROCHBUTE013 2101655.1   0.   0.   0.   0.                     1131000   3     1  7  4                   
10410 L  OBALBIN-AM230  102683.2                                         1131000   3     1     1                   
10411 L1 DBALBI1UHE013 2 99487.9  40.-1.86-24.224.19         .6   .1     1131000   3     1  5  4                   
10412 L1 DBALBI2UHE013 2 99487.9  40.-1.86-24.224.19         .6   .1     1131000   3     1  5  4                   
10413 L1 DBALBI3UHE013 2 994 88.  40.-1.89-24.224.19                     1131000   3     1  5  4                   
10414 L1 DBALBI4UHE013 2 994 88.  40.-1.89-24.224.19                     1131000   3     1  5  4                   
10415 L1 DBALBI5UHE013 2 99487.9  40.-1.86-24.224.19         .6   .1     1131000   3     1  5  4                   
10416 L  JP.FIG.-AM069 2100579.9                                         1131000   3     1     2                   
10417 L  JP.FIG.-AM069 2100479.8                                         1151000   3     1     5                   
10418 L  DP.FIG.-AM013  100378.1                           14.9 2.12     1131000   3     1     5                   
10419 L  OP.FIG.-AM230  102280.9                                         1131000   3     1     1                   
10420 L  JDISTR1-AM069   99867.9                          70.6210.06     1131000   3     1     3                   
10421 L  JCESPEC-AM069   99667.7                          43.8814.42     1131000   3     1     3                   
10422 L  ZMANA-1-AM000 E 99974.2                                         1131000   3     1     2                   
10423 L  DMANA-1-AM013   99974.2                                         1131000   3     1     2                   
10424 L  ZMANA-2-AM000 E 998 74.                                         1131000   3     1     2                   
10425 L  DMANA-2-AM013   998 74.                                         1131000   3     1     2                   
10426 L  ZMANA-3-AM000 E 998 74.                                         1131000   3     1     2                   
10427 L  DMANA-3-AM013   998 74.                                         1131000   3     1     2                   
10428 L  ZMANA-4-AM000 E 998 74.                                         1131000   3     1     2                   
10429 L  DMANA-4-AM013   998 74.                                         1131000   3     1     2                   
10430 L  JCIDNOV-AM069   99165.2                          64.16 9.14     1131000   3     1     3                   
10435 L  JMANAUA-AM069  101275.9                           8.66 2.84     1131000   3     1     3                   
10436 L1 DPIEMANUTE013 2 99480.261.287.656-51.251.24                     1131000   3     1  7  4                   
10437 L  JSTAETE-AM069  100073.6                          50.91 7.25     1131000   3     1     3                   
10440 L  JDISTR2-AM069  100168.2                          87.9812.53     1131000   3     1     3                   
10445 L  JTAMBAQ-AM069  101169.2                                         1131000   3     1     3                   
10447 L1 DPIETBQUTE013 2 97871.560.3224.92-36.750.73                     1131000   3     1  7  4                   
10450 L  JSJOSE--AM069   99365.8                          74.0510.55     1131000   3     1     3                   
10451 L  JPLACIB-AM069   99967.3                           6.07 1.99     1131000   3     1     3                   
10460 L  JSTOANT-AM069   990 73.                           44.3 6.31     1131000   3     1     3                   
10461 L  JJARAQU-AM069  101476.2                          34.52 4.91     1131000   3     1     3                   
10466 L  JSIVAM--AM069   97971.9                          11.32 3.72     1131000   3     1     3                   
10471 L1 DPIEJRQUTE013 2 99378.560.328.174-36.750.73                     1131000   3     1  7  4                   
10480 L  JMANACA-AM069   93358.7                           34.2 4.87     1131000   3     1     3                   
10485 L  JIRANDU-AM069  102871.6                          30.31 4.31     1131000   3     1     3                   
10486 D1 DIRANDUUTE013 2104353.2   0.   0.   0.   0.                     1131000   3     1  7  4                   
10490 L  JREDENC-AM069   99573.9                          43.78 6.23     1131000   3     1     3                   
10492 L  JMARAPA-AM069   99767.4                          62.76 8.94     1131000   3     1     3                   
10493 L  JCES----AM069   993 67.                          16.61 5.46     1131000   3     1     3                   
10500 L  OMAUA-3-AM230   99777.4                                         1131000   3     1     1                   
10501 L1 DMAUA3GUTE013   997 83.343.916.13-150. 240.                     1131000   3     1  7  4                   
10503 L1 DMAUA3VUTE013   99983.6197.613.87 -82. 131.                     1131000   3     1  7  4                   
10504 L  MMAUA-3-AM138  100374.6                                         1131000   3     1     5                   
10505 L  JMAUA-3-AM069  100568.8                                         1131000   3     1     3                   
10509 L  JMUBL4M-AM069  100468.7                                         1131000   3     1     3                   
10510 L  OJ.TEIX-AM230  100077.1                                         1131000   3     1     1                   
10511 L  MJ.TEIX-AM138  100374.7                                         1131000   3     1     5                   
10513 L  JMUBL4D-AM069  100468.7                                         1131000   3     1     3                   
10515 L  JAMAZON-AM069  101175.6                                         1131000   3     1     3                   
10520 L  MMUTIRA-AM138  100073.7                          90.1812.85     1131000   3     1     3                   
10530 L  MCGRAND-AM138   998 73.                          108.315.43     1131000   3     1     3                   
10533 D  MBARREI-AM138 210097.78                                         1131000   3     1     3                   
10534 D  MB.VIST-AM138 2 9943.92                                         1131000   3     1     3                   
10540 L  MCOMPEN-AM138  100173.1                          69.66 9.92     1131000   3     1     3                   
...
99999
DLIN
(De )d O d(Pa )NcEPM( R% )( X% )(Mvar)(Tap)(Tmn)(Tmx)(Phs)(Bc  )(Cn)(Ce)Ns(Cq)(1)(2)(3)(4)(5)(6)(7)(8)(9)(10
   33        35 1           4.11      1.015                     99999999  9999 16 16                          
   34        35 1           4.11      1.015                     99999999  9999 16 16                          
   72       597 1           3.44       1.05                     810.972.  1512 14 14                          
   73       597 1           3.44       1.05                     810.972.  1890 14 14                          
   80       570 1         1.4747         1.                     950.1185  950. 10 10                          
  104     12104 1         4.8075         1.                     230.230.  250. 16 16                          
  108       381 1            7.5         1.                     200.200.  200.  5  5                          
  109       381 1           5.78         1.                     200.200.  200.  5  5                          
  110       284 1    .37042.18254.0731                          279.349.  283.  5  5                          
  111       110 1  N      30.434      .9899   .9  1.1        111 46. 46.32 46.  5  5                          
  112       110 1           7.88         1.                      42. 42.   40.  5  5                          
  115       415 1           -.49         1.                     100.103.  103. 10 10                          
  115       815 1           -.49         1.                     100.103.  103. 10 10                          
  115       816 1           -.49         1.                     100.120.  120. 10 10                          
  115      9800 1 T  1.018 2.181 .5789                          112.127.  112. 10 27                          
  115      9800 2 T  1.018 2.181 .5789                          112.127.  112. 10 27                          
  120     58098 1     5.59   15.  3.41                          132.132.  132. 16 16                          
  120     58098 2     5.59   15.  3.41                          132.132.  132. 16 16                          
  128       280 1             8.         1.                     150.150.  150.  5  5                          
  129       280 1             8.         1.                     150.150.  150.  5  5                          
  130       138 1         8.0789         1.                     200.200.  200. 15 15                          
  131       531 1           -.65         1.                     100.103.  100. 10 10                          
  131       731 1           -.65         1.                     100.103.  100. 10 10                          
  131       732 1           -.65         1.                     100.103.  100. 10 10                          
  137       138 1           8.08         1.                     200.200.  200. 15 15                          
  138       248 1      .01   .02   .06                          478.478.  478. 15 15                          
  139       649 1          20.12         1.                     99999999  9999 16 16                          
  141       147 1          -3.63         1.                     99999999  9999 16 16                          
  141       148 1          -3.63         1.                     99999999  9999 16 16                          
  141       149 1          -3.63         1.                     99999999  9999 16 16                          
  141       353 1     .092  .459 .8932                          99999999  9999 16 16                          
  141       353 2     .092  .459 .8932                          99999999  9999 16 16                          
  142       102 1           7.32         1.                     99999999  9999  6  6                          
  142       625 1    1.328 4.662                                99999999  9999  6  6                          
  144       145 1    10.29 29.51  7.74                           66. 66.   66. 15 20                          
  144       146 1      5.9 18.44   4.8                           68. 68.   68. 15 15                          
  144       400 1           12.7         1.                      50. 50.   50. 15 15                          
  144       401 1           12.7         1.                      50. 50.   50. 15 15                          
  145       645 1          25.33      .9945   .9  1.1       -645 45. 45.32 45. 20 20                          
  145       645 2            26.      .9945   .9  1.1       -645 50. 50.32 50. 20 20                          
  145       694 1            26.      .9944   .9  1.1       -694 50. 50.32 50. 20 15                          
  146       445 1      8.9 27.86   7.2                           68.688.   68. 15 20                          
  147        96 1          19.31         1.                     99999999  9999 16 16                          
  147        97 1          23.24         1.                     99999999  9999 16 16                          
  148        98 1          19.31         1.                     99999999  9999 16 16                          
  148        99 1          23.24         1.                     99999999  9999 16 16                          
  149       100 1          19.31         1.                     99999999  9999 16 16                          
  149       101 1            7.8         1.                     99999999  9999 16 16                          
  150       140 1          63.65         1.                      27. 27.   27.  5  5                          
  150       140 2          63.65         1.                      27. 27.   27.  5  5                          
  151       152 1 T   4.03 13.09   3.1                           68. 68.  118. 20 20                          
  151       152 2    4.17113.009 3.176                          101.101.  101. 20 20                          
  151     56462 1    3.542 19.09  5.53                          167.209.  167. 20 20                          
  152       852 1         131.16        .96                      33. 33.   15. 20 20                          
  152       858 1         131.16        .96                      33. 33.   15. 20 20                          
  162     18554 1     6.47 17.16 4.274                          100.136.  100.  5  5                          
  164       567 1           1.05         1.                     13302700   44. 27 27                          
  166       571 1    .11641.8643265.83                          25982728  2598 27 27                          
  169     18554 1     8.03 21.26  5.99                          100.136.  100.  5  5                          
  169     18600 1     4.27 12.22 2.938                           95.136.   95.  5  5                          
  176        63 1          68.61         1.                      14. 17.   14.  5  5                          
  176       976 1           8.78         1.                      50. 50.   50.  5  5                          
  181       180 1            14.         1.                     99999999  9999  5  5                          
  182       181 1     1.15  2.73  .063                           50. 68.   68.  5  5                          
  182       337 1     1.36  6.03  .105                           75.102.  102.  5  5                          
  182       337 2     1.36  6.03  .105                           75.102.  102.  5  5                          
  186     18510 1   12.11930.121 8.031                          100.136.  100.  5  5                          
  190       195 1          4.074         1.                     270.270.  135. 14 14                          
  191       591 1     .189 3.037 454.1                          25982598  2598 14 27                          
  192     19751 1 T 3.41578.82172.1519                          126.126.  123. 14 14                          
  192     19761 1   6.468712.7643.1468                          105.105.  103. 14 14                          
  192     19761 2   4.933713.3783.0853                          126.126.  103. 14 14                          
  196       244 1            6.7         1.                     220.220.  220. 15 15                          
  197       599 1           -.71                                19922680  1992 14 14                          
  198       698 1          -.458         1.                     200.240.   33. 14 14                          
  200         4 1          13.48       1.04                      75. 90.   75.  5  5                          
  200         5 1          14.22       1.04                      75. 90.   75.  5  5                          
  200         6 1          19.91       1.04                      75. 90.   75.  5  5                          
  200         7 1           12.4       1.04                      90.108.   90.  5  5                          
  200         8 1          15.78       1.04                      90.108.   90.  5  5                          
  200         9 1          15.52       1.04                      90.108.   90.  5  5                          
  200        10 1           5.55         1.                     240.288.  240.  5  5                          
  200       208 1       .1   .52   .98                          251.317.  317.  5  2                          
  200       220 1 T   2.31  9.19 53.16                          400.400.  400.  5 16                          
  200       270 1     2.45  13.1 22.68                          251.251.  251.  5  5                          
  200       349 1    3.68120.06634.322                          174.247.  247.  5 16                          
  200       500 1          1.414       .969   .9  1.1        200600.600.32600.  5  5                          
  200       600 1          12.47      1.032   .9  1.1       -600100.100.32100.  5  5                          
  200     11201 1   2.135810.24118.859                          174.247.  247.  5  2                          
  200     11250 1   2.596813.338 25.24                          251.317.  251.  5 25                          
  202       203 1      2.7  13.9 26.26                          251.317.  251.  5  5                          
  202       207 1    1.442  7.05 13.24                          251.317.  251.  5  5                          
  202       602 1          12.47      .9977   .9  1.1       -602100.100.32100.  5  5                          
  202       602 2          12.87      .9977   .9  1.1       -602100.100.32100.  5  5                          
  202       602 3            13.      .9977   .9  1.1       -602100.100.32100.  5  5                          
  202       602 4            13.      .9977   .9  1.1       -602100.120.32100.  5  5                          
  202     11282 1      .07  .065  .254                          550.693.  550.  5  5                          
  203       103 1            9.2      .9751 .7261.117       -103100.100.32100.  5  5                          
  203       103 2           9.21      .9751 .7261.117       -103100.120.32100.  5  5                          
  203       103 3           9.42      .9751 .7261.117       -103100.120.32100.  5  5                          
  203       603 1           59.5      .9854   .9  1.1       -603 33. 33.32 33.  5  5                          
  203       603 2          13.11      .9854   .9  1.1       -603100.100.32 33.  5  5                          
  203       603 3          13.11      .9854   .9  1.1       -603100.100.32100.  5  5                          
  205       283 1      2.4 13.05 23.32                          251.317.  251.  5  5                          
  205     11260 1    2.58312.40522.894                          251.317.  251.  5  5                          
  206       202 1      .78    4.   7.5                          251.317.  251.  5  5                          
  206       202 2      .78    4.   7.5                          251.317.  251.  5  5                          
  206       506 1           3.56      .9536   .9  1.1        206300.300.32300.  5  5                          
  206       506 2           3.56      .9536   .9  1.1        206300.300.32300.  5  5                          
  207       203 1      1.3  6.67 12.52                          251.317.  251.  5  5                          
  207     21036 1      .02  .095  .174                          251.317.  251.  5  5                          
  207     21036 2      .02  .095  .174                          251.317.  251.  5  5                          
  208       708 1          12.81      .9803  .85  1.1       -708100.100.20569.  2  2                          
  208       708 2          12.81      .9803  .85  1.1       -708100.100.20569.  2  2                          
  209       376 1     2.68  13.6 24.87                          250.250.  250.  5  5                          
  209       909 1           11.8      1.007   .9  1.1       -909100.100.32100.  5  5                          
  209       909 2           11.8      1.007   .9  1.1       -909100.100.32100.  5  5                          
  210       215 1    1.516  8.7217.103                          203.251.  251. 17 10                          
  210       215 2    1.516  8.7217.103                          203.251.  251. 17 10                          
  210       657 1          24.26      1.006   .9  1.1       -657 50. 60.32 60. 17 17                          
  210       969 1     .746 3.784 6.982                          200.200.  200. 17 17                          
  211        86 1         14.065         1.                     160.192.  160. 17 17                          
  211        87 1          16.07         1.                     160.192.  160. 17 17                          
  211       228 1    1.867  9.63 16.83                          273.273.  273. 17 17                          
  212     21034 1      .02  .095  .174                          251.317.  251. 16 16                          
  212     21034 2      .02  .095  .174                          251.317.  251. 16 16                          
  213       209 1     1.65  8.35 15.27                          250.250.  250.  5  5                          
  213     21045 1      .02  .095  .174                          251.317.  251.  5  5                          
  215       607 1          12.07      .9961   .9  1.1       -607100.120.32120. 10 10                          
  215       607 2          12.07      .9961   .9  1.1       -607100.120.32120. 10 10                          
  216       616 1          12.63      .9942  .851.117       -616100.100.32100.  6  6                          
  216       616 2          12.63      .9942  .851.117       -616100.100.32100.  6  6                          
  216     11217 1   4.113519.91837.174                          291.291.  291.  6  6                          
  217       222 1     2.02  8.63 30.04                          323.478.  380.  6  6                          
  217       517 1   1.64566.993724.243                          323.478.  323.  6  6                          
  217       617 1          12.87      .9938   .9  1.1       -617100.100.32100.  6  6                          
  217       617 2            13.      .9938   .9  1.1       -617100.100.32100.  6  6                          
  217       617 3           12.4      .9938   .9  1.1       -617100.100.32100.  6  6                          
  218       618 1          13.33      .9864   .9  1.1       -618100.100.32100.  6  6                          
  218       618 2          12.72      .9864   .9  1.1       -618100.100.32100.  6  6                          
  218       618 3          12.72      .9864   .9  1.1       -618100.100.32100.  6  6                          
  218     11218 1       .3 2.153 7.981                          476.600.  476.  6  6                          
  219       619 1          12.47      .9975   .9  1.1       -619100.106.32100.  6  6                          
  219       619 2          12.47      .9975   .9  1.1       -619100.106.32100.  6  6                          
  219       619 3          12.47      .9975   .9  1.1       -619100.106.32100.  6  6                          
  219       619 4          12.47      .9975   .9  1.1       -619100.106.32100.  6  6                          
  220       120 1           9.14      .9993   .91.118       -120100.100.32100. 16 16                          
  220       120 2          10.22      .9993   .91.118       -120100.100.32100. 16 16                          
  220       120 3           9.03      .9993   .91.118       -120100.100.32100. 16 16                          
  220       212 1    1.222 4.86228.122                          400.400.  400. 16 16                          
  220       221 1     1.61  8.07 14.56                          174.247.  174. 16  6                          
  220       620 1          34.54      .9717   .9  1.1       -620 33. 33.32 33. 16 16                          
  220       620 2          34.64      .9717   .9  1.1       -620 33. 33.32 33. 16 16                          
  220     21035 1      .02  .095  .174                          251.317.  251. 16 16                          
  221       222 1     4.04 21.81 38.24                          174.247.  174.  6  6                          
  221       222 2     3.59 14.93 56.46                          323.478.  380.  6  6                          
  221       233 1     2.18 11.68 20.24                          251.317.  251.  6 15                          
  221       233 2      2.2 11.64  20.3                          291.291.  291.  6 15                          
  221       517 1    .0767 .32591.1296                          323.478.  323.  6  6                          
  221       521 1           1.27      .9742 .7741.169        221600.600.32600.  6  6                          
  221       521 2           1.27      .9742 .7741.169        221600.600.32600.  6  6                          
  221       521 3           1.27      .9742 .7741.169        221600.600.32600.  6  6                          
  221       621 1            13.      .9862   .9  1.1       -621100.100.32100.  6  6                          
  221       621 2          13.27      .9862   .9  1.1       -621100.102.32100.  6  6                          
  221       621 3          13.23      .9862   .9  1.1       -621100.102.32100.  6  6                          
  221       621 4            13.      .9862 .7261.118       -621100.100.32100.  6  6                          
  221     11217 1   1.50987.227913.278                          291.291.  291.  6  6                          
  222       223 1     2.01 10.77  18.6                          174.247.  174.  6  6                          
  222       223 2     1.45  7.4826.718                          506.601.  506.  6  6                          
  222       224 1     3.21 16.54 31.34                          251.317.  251.  6 20                          
  222       622 1          13.27      .9947 .8631.117       -622100.100.32103.  6  6                          
  222       622 2          13.27      .9947 .8631.117       -622100.100.32103.  6  6                          
  222       622 3            26.      .9947   .9  1.1       -622 50. 50.32136.  6  6                          
  222       622 4            14.      .9947   .9  1.1       -622100.130.32130.  6  6                          
  222     11219 1    2.853   12. 44.02                          307.392.  308.  6  6                          
  222     11219 2    2.853   12. 44.02                          307.392.  308.  6  6                          
  222     11219 3    2.853   12. 44.02                          307.307.  307.  6  6                          
  222     21037 1      .02  .095  .174                          251.317.  251.  6  6                          
  223       623 1          12.42       .989   .9  1.1       -623100.105.32100.  6  6                          
  223       623 2          13.02       .989   .9  1.1       -623100.105.32100.  6  6                          
  223       623 3            13.       .989   .9  1.1       -623100.105.32100.  6  6                          
  223     11014 1     .552 2.944  5.08                          251.317.  251.  6  6                          
  223     56071 1     .757 5.76110.395                          200.200.  200.  6  6                          
  224       624 1          12.97       .984   .9  1.1       -624100.103.32100. 20 20                          
  224       624 2          12.97       .984   .9  1.1       -624100.103.32100. 20 20                          
  224       624 3          13.28       .984   .9  1.1       -624100.103.32100. 20 20                          
  224       624 4          13.28       .984   .9  1.1       -624100.103.32100. 20 20                          
  225       625 1          13.27      .9981   .9  1.1       -625100.106.32100.  6  6                          
  225       625 2           12.9      .9981   .9  1.1       -625100.106.32100.  6  6                          
  225       625 3          12.98      .9981   .9  1.1       -625100.106.32100.  6  6                          
  225       625 4          12.97      .9981   .9  1.1       -625100.106.32100.  6  6                          
  225       625 5          12.97      .9981   .9  1.1       -625100.106.32100.  6  6                          
  226       218 1 T   3.26 17.55  30.6                          238.300.  300.  6  6                          
  226       326 1     .145 1.021 3.665                          589.742.  589.  6  6                          
  226       326 2     .145 1.021 3.665                          589.742.  589.  6  6                          
  226       626 1          12.37       .983   .9  1.1       -626100.102.32100.  6  6                          
  226       626 2          12.29       .983   .9  1.1       -626100.102.32102.  6  6                          
  226       626 3          13.18       .983   .9  1.1       -626100.100.32100.  6  6                          
  226       626 4          13.18       .983   .9  1.1       -626100.100.32100.  6  6                          
  226     21038 1      .02  .095  .174                          251.317.  251.  6  6                          
...
99999
DCSC
(De ) O  (Pa )NcEPB      (Xmin)(Xmax)( Xv )C ( Vsp) (Ext)Nst(Cn)(Ce)(Cq)(1)(2)(3)(4)(5)(6)(7)(8)(9)(10
  736      539 1          -1.76  -.59 -.637X  -.637   736   999999999999
99999
DBSH
(NFr) O (NTo) Nc C (Vmn (Vmx Bctrl (Qini) T A (Extr
  121            D 0950 1050   121   -10. C         
(G  O E (U) UOp (Sht ) M
 1        2   2    -5. S
 2        1   0   -10. S
FBAN
(NFr) O (NTo) Nc C (Vmn (Vmx Bctrl (Qini) T A (Extr
  125            D 0950 1050   125    3.1 C         
(G  O E (U) UOp (Sht ) M
 1        3   1    3.1 S
 2        1   0    -5. S
FBAN
(NFr) O (NTo) Nc C (Vmn (Vmx Bctrl (Qini) T A (Extr
  145            D 0950 1050   145   -10. C         
(G  O E (U) UOp (Sht ) M
 1        1   1   -10. S
FBAN
(NFr) O (NTo) Nc C (Vmn (Vmx Bctrl (Qini) T A (Extr
  162            D 0950 1050   162    10. C         
(G  O E (U) UOp (Sht ) M
 1        1   1    10. S
FBAN
(NFr) O (NTo) Nc C (Vmn (Vmx Bctrl (Qini) T A (Extr
  213            D 0950 1050   213   -10. C         
(G  O E (U) UOp (Sht ) M
 1        1   1   -10. S
 2        1   0   -15. S
FBAN
(NFr) O (NTo) Nc C (Vmn (Vmx Bctrl (Qini) T A (Extr
  216            D 0950 1050   216   -15. C         
(G  O E (U) UOp (Sht ) M
 1        1   1   -15. S
FBAN
(NFr) O (NTo) Nc C (Vmn (Vmx Bctrl (Qini) T A (Extr
  219            D 0950 1050   219        C         
(G  O E (U) UOp (Sht ) M
 1        1   0   50.5 S
FBAN
(NFr) O (NTo) Nc C (Vmn (Vmx Bctrl (Qini) T A (Extr
  221            D 0950 1050   221        C         
(G  O E (U) UOp (Sht ) M
 1        1   0   -20. S
 2        2   0   50.5 S
FBAN
(NFr) O (NTo) Nc C (Vmn (Vmx Bctrl (Qini) T A (Extr
  222            D 0950 1050   222        C         
(G  O E (U) UOp (Sht ) M
 1        2   0   -20. S
 2        2   0   50.5 S
 3        1   0   -20. S
FBAN
(NFr) O (NTo) Nc C (Vmn (Vmx Bctrl (Qini) T A (Extr
  223            D 0950 1050   223   -20. C         
(G  O E (U) UOp (Sht ) M
 2        1   1   -20. S
FBAN
(NFr) O (NTo) Nc C (Vmn (Vmx Bctrl (Qini) T A (Extr
  225            D 0950 1050   225        C         
(G  O E (U) UOp (Sht ) M
 1        1   0   50.5 S
 2        1   0   -10. S
FBAN
(NFr) O (NTo) Nc C (Vmn (Vmx Bctrl (Qini) T A (Extr
  227            D 0950 1050   227    30. C         
(G  O E (U) UOp (Sht ) M
 1        3   1    30. S
FBAN
(NFr) O (NTo) Nc C (Vmn (Vmx Bctrl (Qini) T A (Extr
  228            D 0950 1050   228        C         
(G  O E (U) UOp (Sht ) M
 1        1   0   50.5 S
 2        1   0   50.5 S
FBAN
(NFr) O (NTo) Nc C (Vmn (Vmx Bctrl (Qini) T A (Extr
  329     228  1 D 0950 1050   228        C     228 
(G  O E (U) UOp (Sht ) M
 1        1   0   -10. S
FBAN
(NFr) O (NTo) Nc C (Vmn (Vmx Bctrl (Qini) T A (Extr
  211     228  1 D 0950 1050   228        C     228 
(G  O E (U) UOp (Sht ) M
 1        1   0   -10. S
FBAN
(NFr) O (NTo) Nc C (Vmn (Vmx Bctrl (Qini) T A (Extr
  230            D 0950 1050   230        C         
(G  O E (U) UOp (Sht ) M
 1        1   0    20. S
FBAN
(NFr) O (NTo) Nc C (Vmn (Vmx Bctrl (Qini) T A (Extr
  231            D 0950 1050   231        C         
(G  O E (U) UOp (Sht ) M
 1        2   0   -10. S
 2        2   0    20. S
FBAN
(NFr) O (NTo) Nc C (Vmn (Vmx Bctrl (Qini) T A (Extr
  236            D 0950 1050   236   -15. C         
(G  O E (U) UOp (Sht ) M
 1        1   1   -15. S
FBAN
(NFr) O (NTo) Nc C (Vmn (Vmx Bctrl (Qini) T A (Extr
  228     236  1 D 0950 1050   236    -5. C     236 
(G  O E (U) UOp (Sht ) M
 1        1   1    -5. S
FBAN
(NFr) O (NTo) Nc C (Vmn (Vmx Bctrl (Qini) T A (Extr
19099     236  1 D 0950 1050   236        C     236 
(G  O E (U) UOp (Sht ) M
 1        1   0   -20. S
FBAN
(NFr) O (NTo) Nc C (Vmn (Vmx Bctrl (Qini) T A (Extr
  241            D 0950 1050   241   50.5 C         
(G  O E (U) UOp (Sht ) M
 1        2   1   50.5 S
FBAN
(NFr) O (NTo) Nc C (Vmn (Vmx Bctrl (Qini) T A (Extr
  246            D 0950 1050   246   -30. C         
(G  O E (U) UOp (Sht ) M
 1        1   1   -30. S
FBAN
(NFr) O (NTo) Nc C (Vmn (Vmx Bctrl (Qini) T A (Extr
  290     246  1 D 0950 1050   246        C     246 
(G  O E (U) UOp (Sht ) M
 1        1   0   -10. S
FBAN
(NFr) O (NTo) Nc C (Vmn (Vmx Bctrl (Qini) T A (Extr
  246     346  1 D 0950 1050   246        C     246 
(G  O E (U) UOp (Sht ) M
 1        1   0   -9.9 S
FBAN
(NFr) O (NTo) Nc C (Vmn (Vmx Bctrl (Qini) T A (Extr
  247            D 0950 1050   247        C         
(G  O E (U) UOp (Sht ) M
 1        1   0   -10. S
FBAN
(NFr) O (NTo) Nc C (Vmn (Vmx Bctrl (Qini) T A (Extr
  258            D 0950 1050   258    15. C         
(G  O E (U) UOp (Sht ) M
 1        3   1    15. S
FBAN
(NFr) O (NTo) Nc C (Vmn (Vmx Bctrl (Qini) T A (Extr
  261            D 0950 1050   261        C         
(G  O E (U) UOp (Sht ) M
 1        1   0    63. S
FBAN
(NFr) O (NTo) Nc C (Vmn (Vmx Bctrl (Qini) T A (Extr
  265            D 0950 1050   265        C         
(G  O E (U) UOp (Sht ) M
 1        1   0    50. S
FBAN
(NFr) O (NTo) Nc C (Vmn (Vmx Bctrl (Qini) T A (Extr
  269            D 0950 1050   269        C         
(G  O E (U) UOp (Sht ) M
 1        1   0  -22.2 S
 2        1   0    20. S
FBAN
(NFr) O (NTo) Nc C (Vmn (Vmx Bctrl (Qini) T A (Extr
  276            D 0950 1050   276        C         
(G  O E (U) UOp (Sht ) M
 1        2   0   50.5 S
 2        1   0   -20. S
 3        1   0  -22.2 S
FBAN
(NFr) O (NTo) Nc C (Vmn (Vmx Bctrl (Qini) T A (Extr
  283            D 0950 1050   283        C         
(G  O E (U) UOp (Sht ) M
 1        1   0   100. S
FBAN
(NFr) O (NTo) Nc C (Vmn (Vmx Bctrl (Qini) T A (Extr
  285            D 0950 1050   285   -10. C         
(G  O E (U) UOp (Sht ) M
 1        1   1   -10. S
FBAN
(NFr) O (NTo) Nc C (Vmn (Vmx Bctrl (Qini) T A (Extr
  285     205  1 D 0950 1050   285   -15. C     285 
(G  O E (U) UOp (Sht ) M
 1        2   1   -15. S
FBAN
(NFr) O (NTo) Nc C (Vmn (Vmx Bctrl (Qini) T A (Extr
  286            D 0950 1050   286   -10. C         
(G  O E (U) UOp (Sht ) M
 1        1   1   -10. S
FBAN
(NFr) O (NTo) Nc C (Vmn (Vmx Bctrl (Qini) T A (Extr
  291            D 0950 1050   291   111. C         
(G  O E (U) UOp (Sht ) M
 1        4   2   55.5 S
FBAN
(NFr) O (NTo) Nc C (Vmn (Vmx Bctrl (Qini) T A (Extr
  292            D 0950 1050   292    55. C         
(G  O E (U) UOp (Sht ) M
 1        2   1    55. S
FBAN
(NFr) O (NTo) Nc C (Vmn (Vmx Bctrl (Qini) T A (Extr
  295            D 0950 1050   295    15. C         
(G  O E (U) UOp (Sht ) M
 1        1   0   -15. S
 2        3   1    15. S
FBAN
(NFr) O (NTo) Nc C (Vmn (Vmx Bctrl (Qini) T A (Extr
  298            D 0950 1050   298   222. C         
(G  O E (U) UOp (Sht ) M
 1        4   2   111. S
FBAN
(NFr) O (NTo) Nc C (Vmn (Vmx Bctrl (Qini) T A (Extr
  299            D 0950 1050   299        C         
(G  O E (U) UOp (Sht ) M
 1        1   0    20. S
FBAN
(NFr) O (NTo) Nc C (Vmn (Vmx Bctrl (Qini) T A (Extr
  332            D 0950 1050   332   50.8 C         
(G  O E (U) UOp (Sht ) M
 1        1   1   50.8 S
 2        1   0   61.1 S
 3        1   0   111. S
FBAN
(NFr) O (NTo) Nc C (Vmn (Vmx Bctrl (Qini) T A (Extr
  345            D 0950 1050   345    20. C         
(G  O E (U) UOp (Sht ) M
 1        2   1    20. S
FBAN
(NFr) O (NTo) Nc C (Vmn (Vmx Bctrl (Qini) T A (Extr
  355            D 0950 1050   355   -20. C         
(G  O E (U) UOp (Sht ) M
 1        1   1   -20. S
FBAN
(NFr) O (NTo) Nc C (Vmn (Vmx Bctrl (Qini) T A (Extr
  360            D 0950 1050   360   50.5 C         
(G  O E (U) UOp (Sht ) M
 1        1   1   50.5 S
 2        1   0   50.5 S
FBAN
(NFr) O (NTo) Nc C (Vmn (Vmx Bctrl (Qini) T A (Extr
  362            D 0950 1050   362   -30. C         
(G  O E (U) UOp (Sht ) M
 1        1   1   -30. S
FBAN
(NFr) O (NTo) Nc C (Vmn (Vmx Bctrl (Qini) T A (Extr
  361     363  1 D 0950 1050   363   -30. C     363 
(G  O E (U) UOp (Sht ) M
 1        1   1   -30. S
FBAN
(NFr) O (NTo) Nc C (Vmn (Vmx Bctrl (Qini) T A (Extr
  365            D 0950 1050   365   -20. C         
(G  O E (U) UOp (Sht ) M
 1        1   1   -20. S
FBAN
(NFr) O (NTo) Nc C (Vmn (Vmx Bctrl (Qini) T A (Extr
  376            D 0950 1050   376   -10. C         
(G  O E (U) UOp (Sht ) M
 1        1   1   -10. S
FBAN
(NFr) O (NTo) Nc C (Vmn (Vmx Bctrl (Qini) T A (Extr
  209     376  1 D 0950 1050   376        C     376 
(G  O E (U) UOp (Sht ) M
10        1   0   -15. S
FBAN
(NFr) O (NTo) Nc C (Vmn (Vmx Bctrl (Qini) T A (Extr
  381            D 0950 1050   381    50. C         
(G  O E (U) UOp (Sht ) M
 1        1   1    50. S
FBAN
(NFr) O (NTo) Nc C (Vmn (Vmx Bctrl (Qini) T A (Extr
  390            D 0950 1050   390    55. C         
(G  O E (U) UOp (Sht ) M
 1        2   1    55. S
FBAN
(NFr) O (NTo) Nc C (Vmn (Vmx Bctrl (Qini) T A (Extr
  394            D 0950 1050   394   50.5 C         
(G  O E (U) UOp (Sht ) M
 1        1   1   50.5 S
FBAN
(NFr) O (NTo) Nc C (Vmn (Vmx Bctrl (Qini) T A (Extr
  439     438  1 D 1000 1100   438  -150. C     438 
(G  O E (U) UOp (Sht ) M
 1        1   1  -150. S
FBAN
(NFr) O (NTo) Nc C (Vmn (Vmx Bctrl (Qini) T A (Extr
  459     838  1 D 1000 1100   459  -180. C     459 
(G  O E (U) UOp (Sht ) M
 1        1   1  -180. S
FBAN
...